LTspice 24.1.10 for Windows
Circuit: C:\Users\srava\STM32CubeIDE\workspace_1.19.0\scope\signal_conditioner\signal_conditioner.net
Start Time: Mon Jun 22 18:25:13 2026
solver = Normal
Maximum thread count: 8
tnom = 27
temp = 27
method = trap
Direct Newton iteration failed to find .op point.  (Use ".option noopiter" to skip.)
Starting Gmin stepping
Gmin = 10
Gmin = 1.07374
vernier = 0.5
vernier = 0.666667
Gmin = 0.375229
vernier = 0.888888
vernier = 1
Gmin = 0.0567082
Gmin = 0.006089
Gmin = 0.000653801
Gmin = 7.02013e-05
Gmin = 7.53781e-06
Gmin = 8.09366e-07
Gmin = 8.6905e-08
Gmin = 9.33136e-09
Gmin = 1.00195e-09
Gmin = 1.07583e-10
Gmin = 1.15517e-11
Gmin = 1.24035e-12
Gmin = 1.33182e-13
Gmin = 0
Gmin stepping succeeded in finding the operating point.

Total elapsed time: 0.376 seconds.

Files loaded:
C:\Users\srava\STM32CubeIDE\workspace_1.19.0\scope\signal_conditioner\signal_conditioner.net
C:\Users\srava\AppData\Local\LTspice\lib\sub\UniversalOpAmp2.lib

